Version 4
SHEET 1 904 680
WIRE 112 -272 -80 -272
WIRE 432 -272 112 -272
WIRE 432 -176 432 -272
WIRE 32 -48 -16 -48
WIRE 432 -48 432 -96
WIRE 432 -48 256 -48
WIRE -192 16 -224 16
WIRE 32 16 -192 16
WIRE 336 16 256 16
WIRE -224 48 -224 16
WIRE -80 80 -80 -272
WIRE 32 80 -80 80
WIRE 288 80 256 80
WIRE 432 112 432 -48
WIRE -16 192 -16 -48
WIRE 336 192 336 16
WIRE 336 192 -16 192
WIRE 432 192 336 192
WIRE 288 272 288 80
WIRE 272 336 -16 336
WIRE 288 336 272 336
FLAG -368 0 0
FLAG -368 -80 VCC
FLAG 256 -112 VCC
FLAG 32 -112 0
FLAG 112 -272 VCC
FLAG -224 128 0
FLAG 272 336 0
FLAG -192 16 Vout
SYMBOL cap -32 272 R0
SYMATTR InstName C1
SYMATTR Value {(132.5+0.25*hu + (b1*hu+b2)*t+b3+b4)*1p}
SYMBOL Misc\\NE555 144 -16 R0
SYMATTR InstName U1
SYMBOL voltage -368 -96 R0
WINDOW 123 0 0 Left 0
WINDOW 39 0 0 Left 0
SYMATTR InstName V1
SYMATTR Value 3.3
SYMBOL cap 272 272 R0
SYMATTR InstName C2
SYMATTR Value 1µf
SYMBOL res 416 96 R0
SYMATTR InstName R1
SYMATTR Value 100k
SYMBOL res 416 -192 R0
SYMATTR InstName R2
SYMATTR Value 100k
SYMBOL res -240 32 R0
SYMATTR InstName R3
SYMATTR Value 100k
SYMBOL res -32 176 R0
SYMATTR InstName R4
SYMATTR Value 1
TEXT 576 -240 Left 2 !.step param hu 40 100 10
TEXT -400 360 Left 2 !.tran 0 2m 0 0.0001m
TEXT 584 -200 Left 2 !.param t 0
TEXT 592 -160 Left 2 !.param b1 {t*0.0014}
TEXT 592 -120 Left 2 !.param b2 {0.1325*t/hu}
TEXT 600 -80 Left 2 !.param b3 -0.0317
TEXT 600 -40 Left 2 !.param b4 {-3.0876/hu}
