Version 4
SHEET 1 880 680
SYMBOL voltage 208 96 R0
SYMATTR InstName vn
SYMBOL res 192 16 R0
SYMATTR InstName Rs
SYMBOL cap 192 192 R0
SYMATTR InstName C_RH
